FoamFile
{
    format      ascii;
    class       dictionary;
    object      blockMeshDict;
}

convertToMeters 0.1;

vertices
(
	(0 18.0 -0.1)//0
    (125 15 -0.1)//1
    (135 15 -0.1)//2
    (150 18.0 -0.1)//3
    (0 18.0 0.1)//0
    (125 15 0.1)//1
    (135 15 0.1)//2
    (150 18.0 0.1)//3
);
